/*--------------------------------*- C++ -*----------------------------------*\
| =========                 |                                                 |
| \\      /  F ield         | OpenFOAM: The Open Source CFD Toolbox           |
|  \\    /   O peration     | Version:  v1812                                 |
|   \\  /    A nd           | Web:      www.OpenFOAM.com                      |
|    \\/     M anipulation  |                                                 |
\*---------------------------------------------------------------------------*/
FoamFile
{
    version     2.0;
    format      ascii;
    class       polyBoundaryMesh;
    location    "constant/polyMesh";
    object      boundary;
}
// * * * * * * * * * * * * * * * * * * * * * * * * * * * * * * * * * * * * * //

4
(
    wing
    {
        type            wall;
        inGroups        1(wall);
        nFaces          3961;
        startFace       125409;
    }
    sym1
    {
        type            symmetry;
        inGroups        1(symmetry);
        nFaces          71733;
        startFace       129370;
    }
    sym2
    {
        type            symmetry;
        inGroups        1(symmetry);
        nFaces          71733;
        startFace       201103;
    }
    inout
    {
        type            patch;
        nFaces          30;
        startFace       272836;
    }
)

// ************************************************************************* //
