/*--------------------------------*- C++ -*----------------------------------*\
| =========                 |                                                 |
| \\      /  F ield         | OpenFOAM: The Open Source CFD Toolbox           |
|  \\    /   O peration     | Version:  v1812                                 |
|   \\  /    A nd           | Web:      www.OpenFOAM.com                      |
|    \\/     M anipulation  |                                                 |
\*---------------------------------------------------------------------------*/
FoamFile
{
    version     2.0;
    format      ascii;
    class       polyBoundaryMesh;
    location    "constant/polyMesh";
    object      boundary;
}
// * * * * * * * * * * * * * * * * * * * * * * * * * * * * * * * * * * * * * //

4
(
    wing
    {
        type            wall;
        inGroups        1(wall);
        nFaces          522;
        startFace       18109;
    }
    sym1
    {
        type            symmetry;
        inGroups        1(symmetry);
        nFaces          10698;
        startFace       18631;
    }
    sym2
    {
        type            symmetry;
        inGroups        1(symmetry);
        nFaces          10698;
        startFace       29329;
    }
    inout
    {
        type            patch;
        nFaces          36;
        startFace       40027;
    }
)

// ************************************************************************* //
