/*--------------------------------*- C++ -*----------------------------------*\
| =========                 |                                                 |
| \\      /  F ield         | OpenFOAM: The Open Source CFD Toolbox           |
|  \\    /   O peration     | Version:  v1812                                 |
|   \\  /    A nd           | Web:      www.OpenFOAM.com                      |
|    \\/     M anipulation  |                                                 |
\*---------------------------------------------------------------------------*/
FoamFile
{
    version     2.0;
    format      ascii;
    class       polyBoundaryMesh;
    location    "constant/polyMesh";
    object      boundary;
}
// * * * * * * * * * * * * * * * * * * * * * * * * * * * * * * * * * * * * * //

4
(
    sym1
    {
        type            symmetry;
        inGroups        1(symmetry);
        nFaces          10592;
        startFace       249642;
    }
    sym2
    {
        type            symmetry;
        inGroups        1(symmetry);
        nFaces          10617;
        startFace       260234;
    }
    inout
    {
        type            patch;
        nFaces          109;
        startFace       270851;
    }
    wing
    {
        type            wall;
        inGroups        1(wall);
        nFaces          6638;
        startFace       270960;
    }
)

// ************************************************************************* //
